*SPEF "ieee 1481-1999"
*DESIGN "yolo26n_top"
*DATE "17:16:14 Saturday March 21, 2026"
*VENDOR "The OpenROAD Project"
*PROGRAM "OpenROAD"
*VERSION "edf00dff99f6c40d67a30c0e22a8191c5d2ed9d6"
*DESIGN_FLOW "NAME_SCOPE LOCAL" "PIN_CAP NONE"
*DIVIDER /
*DELIMITER :
*BUS_DELIMITER []
*T_UNIT 1 NS
*C_UNIT 1 PF
*R_UNIT 1 OHM
*L_UNIT 1 HENRY

*NAME_MAP
*3 busy
*4 clock
*5 current_stage[0]
*6 current_stage[1]
*7 current_stage[2]
*8 current_stage[3]
*9 current_stage[4]
*10 done
*11 host_input_addr[0]
*12 host_input_addr[10]
*13 host_input_addr[11]
*14 host_input_addr[12]
*15 host_input_addr[13]
*16 host_input_addr[14]
*17 host_input_addr[15]
*18 host_input_addr[16]
*19 host_input_addr[17]
*20 host_input_addr[18]
*21 host_input_addr[19]
*22 host_input_addr[1]
*23 host_input_addr[20]
*24 host_input_addr[2]
*25 host_input_addr[3]
*26 host_input_addr[4]
*27 host_input_addr[5]
*28 host_input_addr[6]
*29 host_input_addr[7]
*30 host_input_addr[8]
*31 host_input_addr[9]
*32 host_input_data[0]
*33 host_input_data[10]
*34 host_input_data[11]
*35 host_input_data[12]
*36 host_input_data[13]
*37 host_input_data[14]
*38 host_input_data[15]
*39 host_input_data[16]
*40 host_input_data[17]
*41 host_input_data[18]
*42 host_input_data[19]
*43 host_input_data[1]
*44 host_input_data[20]
*45 host_input_data[21]
*46 host_input_data[22]
*47 host_input_data[23]
*48 host_input_data[24]
*49 host_input_data[25]
*50 host_input_data[26]
*51 host_input_data[27]
*52 host_input_data[28]
*53 host_input_data[29]
*54 host_input_data[2]
*55 host_input_data[30]
*56 host_input_data[31]
*57 host_input_data[3]
*58 host_input_data[4]
*59 host_input_data[5]
*60 host_input_data[6]
*61 host_input_data[7]
*62 host_input_data[8]
*63 host_input_data[9]
*64 host_input_we
*65 host_output_addr[0]
*66 host_output_addr[10]
*67 host_output_addr[1]
*68 host_output_addr[2]
*69 host_output_addr[3]
*70 host_output_addr[4]
*71 host_output_addr[5]
*72 host_output_addr[6]
*73 host_output_addr[7]
*74 host_output_addr[8]
*75 host_output_addr[9]
*76 host_output_data[0]
*77 host_output_data[10]
*78 host_output_data[11]
*79 host_output_data[12]
*80 host_output_data[13]
*81 host_output_data[14]
*82 host_output_data[15]
*83 host_output_data[16]
*84 host_output_data[17]
*85 host_output_data[18]
*86 host_output_data[19]
*87 host_output_data[1]
*88 host_output_data[20]
*89 host_output_data[21]
*90 host_output_data[22]
*91 host_output_data[23]
*92 host_output_data[24]
*93 host_output_data[25]
*94 host_output_data[26]
*95 host_output_data[27]
*96 host_output_data[28]
*97 host_output_data[29]
*98 host_output_data[2]
*99 host_output_data[30]
*100 host_output_data[31]
*101 host_output_data[3]
*102 host_output_data[4]
*103 host_output_data[5]
*104 host_output_data[6]
*105 host_output_data[7]
*106 host_output_data[8]
*107 host_output_data[9]
*108 reset
*109 start
*110 _0000_
*111 _0001_
*112 _0002_
*113 _0003_
*114 _0004_
*115 _0005_
*116 _0006_
*117 _0007_
*118 _0008_
*119 _0009_
*120 _0010_
*121 _0011_
*122 _0012_
*123 _0013_
*124 _0014_
*125 _0015_
*126 _0016_
*127 _0017_
*128 _0018_
*129 _0019_
*130 _0020_
*131 _0021_
*132 _0022_
*133 _0023_
*134 _0024_
*135 _0025_
*136 _0026_
*137 _0027_
*138 _0028_
*139 _0029_
*140 _0030_
*141 _0031_
*142 _0032_
*143 _0033_
*144 _0034_
*145 _0035_
*146 _0036_
*147 _0037_
*148 _0038_
*149 _0039_
*150 _0040_
*151 _0041_
*152 _0042_
*153 _0043_
*154 _0044_
*155 _0045_
*156 _0046_
*157 _0047_
*158 _0048_
*159 _0049_
*160 _0050_
*161 _0051_
*162 _0052_
*163 _0053_
*164 _0054_
*165 _0055_
*166 _0056_
*167 _0057_
*168 _0058_
*169 _0059_
*170 _0060_
*171 _0061_
*172 _0062_
*173 _0063_
*174 _0064_
*175 _0065_
*176 _0066_
*177 _0067_
*178 _0068_
*179 _0069_
*180 _0070_
*181 _0071_
*182 _0072_
*183 _0073_
*184 _0074_
*185 _0075_
*186 _0076_
*187 _0077_
*188 _0078_
*189 _0079_
*190 _0080_
*191 _0081_
*192 _0082_
*193 _0083_
*194 _0084_
*195 _0085_
*196 _0086_
*197 _0087_
*198 _0088_
*199 _0089_
*200 _0090_
*201 _0091_
*202 _0092_
*203 _0093_
*204 _0094_
*205 _0095_
*206 _0096_
*207 _0097_
*208 _0098_
*209 _0099_
*210 _0100_
*211 _0101_
*212 _0102_
*213 _0103_
*214 _0104_
*215 _0105_
*216 _0106_
*217 _0107_
*218 _0108_
*219 _0109_
*220 _0110_
*221 _0111_
*222 _0112_
*223 _0113_
*224 _0114_
*225 _0115_
*226 _0116_
*227 _0117_
*228 _0118_
*229 _0119_
*230 _0120_
*231 _0121_
*232 _0122_
*233 _0123_
*234 _0124_
*235 _0125_
*236 _0126_
*237 _0127_
*238 _0128_
*239 _0129_
*240 _0130_
*241 _0131_
*242 _0132_
*243 _0133_
*244 _0134_
*245 _0135_
*246 _0136_
*247 _0137_
*248 _0138_
*249 _0139_
*250 _0140_
*251 _0141_
*252 _0142_
*253 _0143_
*254 _0144_
*255 _0145_
*256 _0146_
*257 _0147_
*258 _0148_
*259 _0149_
*260 _0150_
*261 _0151_
*262 _0152_
*263 _0153_
*264 _0154_
*265 _0155_
*266 _0156_
*267 _0157_
*268 _0158_
*269 _0159_
*270 _0160_
*271 _0161_
*272 _0162_
*273 _0163_
*274 _0164_
*275 _0165_
*276 _0166_
*277 _0167_
*278 _0168_
*279 _0169_
*280 _0170_
*281 _0171_
*282 _0172_
*283 _0173_
*284 _0174_
*285 _0175_
*286 _0176_
*287 _0177_
*288 _0178_
*289 _0179_
*290 _0180_
*291 _0181_
*292 _0182_
*293 _0183_
*294 _0184_
*295 _0185_
*296 _0186_
*297 _0187_
*298 _0188_
*299 _0189_
*300 _0190_
*301 _0191_
*302 _0192_
*303 _0193_
*304 _0194_
*305 _0195_
*306 _0196_
*307 _0197_
*308 _0198_
*309 _0199_
*310 _0200_
*311 _0201_
*312 _0202_
*313 _0203_
*314 _0204_
*315 _0205_
*316 _0206_
*317 _0207_
*318 _0208_
*319 _0209_
*320 _0210_
*321 _0211_
*322 _0212_
*323 _0213_
*324 _0214_
*325 _0215_
*326 _0216_
*327 _0217_
*328 _0218_
*329 _0219_
*330 _0220_
*331 _0221_
*332 _0222_
*333 _0223_
*334 _0224_
*335 _0225_
*336 _0226_
*337 _0227_
*338 _0228_
*339 _0229_
*340 _0230_
*341 _0231_
*342 _0232_
*343 _0233_
*344 _0234_
*345 _0235_
*346 _0236_
*347 _0237_
*348 _0238_
*349 _0239_
*350 _0240_
*351 _0241_
*352 _0242_
*353 _0243_
*354 _0244_
*355 _0245_
*356 _0246_
*357 _0247_
*358 _0248_
*359 _0249_
*360 _0250_
*361 _0251_
*362 _0252_
*363 _0253_
*364 _0254_
*365 _0255_
*366 _0256_
*367 _0257_
*368 _0258_
*369 _0259_
*370 _0260_
*371 _0261_
*372 _0262_
*373 _0263_
*374 _0264_
*375 _0265_
*376 _0266_
*377 _0267_
*378 _0268_
*379 _0269_
*380 _0270_
*381 _0271_
*382 _0272_
*383 _0273_
*384 _0274_
*385 _0275_
*386 _0276_
*387 _0277_
*388 _0278_
*389 _0279_
*390 _0280_
*391 _0281_
*392 _0282_
*393 _0283_
*394 _0284_
*395 _0285_
*396 _0286_
*397 _0287_
*398 _0288_
*399 _0289_
*400 _0290_
*401 _0291_
*402 _0292_
*403 _0293_
*404 _0294_
*405 _0295_
*406 _0296_
*407 _0297_
*408 _0298_
*409 _0299_
*410 _0300_
*411 _0301_
*412 _0302_
*413 _0303_
*414 _0304_
*415 _0305_
*416 _0306_
*417 _0307_
*418 _0308_
*419 _0309_
*420 _0310_
*421 _0311_
*422 _0312_
*423 _0313_
*424 _0314_
*425 _0315_
*426 _0316_
*427 _0317_
*428 _0318_
*429 _0319_
*430 _0320_
*431 _0321_
*432 _0322_
*433 _0323_
*434 _0324_
*435 _0325_
*436 _0326_
*437 _0327_
*438 _0328_
*439 _0329_
*440 _0330_
*441 _0331_
*442 _0332_
*443 _0333_
*444 _0334_
*445 _0335_
*446 _0336_
*447 _0337_
*448 _0338_
*449 _0339_
*450 _0340_
*451 _0341_
*452 _0342_
*453 _0343_
*454 _0344_
*455 _0345_
*456 _0346_
*457 _0347_
*458 _0348_
*459 _0349_
*460 _0350_
*461 _0351_
*462 _0352_
*463 _0353_
*464 _0354_
*465 _0355_
*466 _0356_
*467 _0357_
*468 _0358_
*469 _0359_
*470 _0360_
*471 _0361_
*472 _0362_
*473 _0363_
*474 _0364_
*475 _0365_
*476 _0366_
*477 _0367_
*478 _0368_
*479 _0369_
*480 _0370_
*481 _0371_
*482 _0372_
*483 _0373_
*484 _0374_
*485 _0375_
*486 _0376_
*487 _0377_
*488 _0378_
*489 _0379_
*490 _0380_
*491 _0381_
*492 _0382_
*493 _0383_
*494 _0384_
*495 _0385_
*496 _0386_
*497 _0387_
*498 _0388_
*499 _0389_
*500 _0390_
*501 _0391_
*502 _0392_
*503 _0393_
*504 _0394_
*505 _0395_
*506 _0396_
*507 _0397_
*508 _0398_
*509 _0399_
*510 _0400_
*511 _0401_
*512 _0402_
*513 _0403_
*514 _0404_
*515 _0405_
*516 _0406_
*517 _0407_
*518 _0408_
*519 _0409_
*520 _0410_
*521 _0411_
*522 _0412_
*523 _0413_
*524 _0414_
*525 _0415_
*526 _0416_
*527 _0417_
*528 _0418_
*529 _0419_
*530 _0420_
*531 _0421_
*532 _0422_
*533 _0423_
*534 _0424_
*535 _0425_
*536 _0426_
*537 _0427_
*538 _0428_
*539 _0429_
*540 _0430_
*541 _0431_
*542 _0432_
*543 _0433_
*544 _0434_
*545 _0435_
*546 _0436_
*547 _0437_
*548 _0438_
*549 _0439_
*550 _0440_
*551 _0441_
*552 _0442_
*553 _0443_
*554 _0444_
*555 _0445_
*556 _0446_
*557 _0447_
*558 _0448_
*559 _0449_
*560 _0450_
*561 _0451_
*562 _0452_
*563 _0453_
*564 _0454_
*565 _0455_
*566 _0456_
*567 _0457_
*568 _0458_
*569 _0459_
*570 _0460_
*571 _0461_
*572 _0462_
*573 _0463_
*574 _0464_
*575 _0465_
*576 _0466_
*577 _0467_
*578 _0468_
*579 _0469_
*580 _0470_
*581 _0471_
*582 _0472_
*583 _0473_
*584 _0474_
*585 _0475_
*586 _0476_
*587 _0477_
*588 _0478_
*589 _0479_
*590 _0480_
*591 _0481_
*592 _0482_
*593 _0483_
*594 _0484_
*595 _0485_
*596 _0486_
*597 _0487_
*598 _0488_
*599 _0489_
*600 _0490_
*601 _0491_
*602 _0492_
*603 _0493_
*604 _0494_
*605 _0495_
*606 _0496_
*607 _0497_
*608 _0498_
*609 _0499_
*610 _0500_
*611 _0501_
*612 _0502_
*613 _0503_
*614 _0504_
*615 _0505_
*616 _0506_
*617 _0507_
*618 _0508_
*619 _0509_
*620 _0510_
*621 _0511_
*622 _0512_
*623 _0513_
*624 _0514_
*625 _0515_
*626 _0516_
*627 _0517_
*628 _0518_
*629 _0519_
*630 _0520_
*631 _0521_
*632 _0522_
*633 _0523_
*634 _0524_
*635 _0525_
*636 _0526_
*637 _0527_
*638 _0528_
*639 _0529_
*640 _0530_
*641 _0531_
*642 _0532_
*643 _0533_
*644 _0534_
*645 _0535_
*646 _0536_
*647 _0537_
*648 _0538_
*649 _0539_
*650 _0540_
*651 _0541_
*652 _0542_
*653 _0543_
*654 _0544_
*655 _0545_
*656 _0546_
*657 _0547_
*658 _0548_
*659 _0549_
*660 _0550_
*661 _0551_
*662 _0552_
*663 _0553_
*664 _0554_
*665 _0555_
*666 _0556_
*667 _0557_
*668 _0558_
*669 _0559_
*670 _0560_
*671 _0561_
*672 _0562_
*673 _0563_
*674 _0564_
*675 _0565_
*676 _0566_
*677 _0567_
*678 _0568_
*679 _0569_
*680 _0570_
*681 _0571_
*682 _0572_
*683 _0573_
*684 _0574_
*685 _0575_
*686 _0576_
*687 _0577_
*688 _0578_
*689 _0579_
*690 _0580_
*691 _0581_
*692 _0582_
*693 _0583_
*694 _0584_
*695 _0585_
*696 _0586_
*697 _0587_
*698 _0588_
*699 _0589_
*700 _0590_
*701 _0591_
*702 _0592_
*703 _0593_
*704 _0594_
*705 _0595_
*706 _0596_
*707 _0597_
*708 _0598_
*709 _0599_
*710 _0600_
*711 _0601_
*712 _0602_
*713 _0603_
*714 _0604_
*715 _0605_
*716 _0606_
*717 _0607_
*718 _0608_
*719 _0609_
*720 _0610_
*721 _0611_
*722 _0612_
*723 _0613_
*724 _0614_
*725 _0615_
*726 _0616_
*727 _0617_
*728 _0618_
*729 _0619_
*730 _0620_
*731 _0621_
*732 _0622_
*733 _0623_
*734 _0624_
*735 _0625_
*736 _0626_
*737 _0627_
*738 _0628_
*739 _0629_
*740 _0630_
*741 _0631_
*742 _0632_
*743 _0633_
*744 _0634_
*745 _0635_
*746 _0636_
*747 _0637_
*748 _0638_
*749 _0639_
*750 _0640_
*751 _0641_
*752 _0642_
*753 _0643_
*754 _0644_
*755 _0645_
*756 _0646_
*757 _0647_
*758 _0648_
*759 _0649_
*760 _0650_
*761 _0651_
*762 _0652_
*763 _0653_
*764 _0654_
*765 _0655_
*766 _0656_
*767 _0657_
*768 _0658_
*769 _0659_
*770 _0660_
*771 _0661_
*772 _0662_
*773 _0663_
*774 _0664_
*775 _0665_
*776 _0666_
*777 _0667_
*778 _0668_
*779 _0669_
*780 _0670_
*781 _0671_
*782 _0672_
*783 _0673_
*784 _0674_
*785 _0675_
*786 _0676_
*787 _0677_
*788 _0678_
*789 _0679_
*790 _0680_
*791 _0681_
*792 _0682_
*793 _0683_
*794 _0684_
*795 _0685_
*796 _0686_
*797 _0687_
*798 _0688_
*799 _0689_
*800 _0690_
*801 _0691_
*802 _0692_
*803 _0693_
*804 _0694_
*805 _0695_
*806 _0696_
*807 _0697_
*808 _0698_
*809 _0699_
*810 _0700_
*811 _0701_
*812 _0702_
*813 _0703_
*814 _0704_
*815 _0705_
*816 _0706_
*817 _0707_
*818 _0708_
*819 _0709_
*820 _0710_
*821 _0711_
*822 _0712_
*823 _0713_
*824 _0714_
*825 _0715_
*826 _0716_
*827 _0717_
*828 _0718_
*829 _0719_
*830 _0720_
*831 _0721_
*832 _0722_
*833 _0723_
*834 _0724_
*835 _0725_
*836 _0726_
*837 _0727_
*838 _0728_
*839 _0729_
*840 _0730_
*841 _0731_
*842 _0732_
*843 _0733_
*844 _0734_
*845 _0735_
*846 _0736_
*847 _0737_
*848 _0738_
*849 _0739_
*850 _0740_
*851 _0741_
*852 _0742_
*853 _0743_
*854 _0744_
*855 _0745_
*856 _0746_
*857 _0747_
*858 _0748_
*859 _0749_
*860 _0750_
*861 _0751_
*862 _0752_
*863 _0753_
*864 _0754_
*865 _0755_
*866 _0756_
*867 _0757_
*868 _0758_
*869 _0759_
*870 _0760_
*871 _0761_
*872 _0762_
*873 _0763_
*874 _0764_
*875 _0765_
*876 _0766_
*877 _0767_
*878 _0768_
*879 _0769_
*880 _0770_
*881 _0771_
*882 _0772_
*883 _0773_
*884 _0774_
*885 _0775_
*886 _0776_
*887 _0777_
*888 _0778_
*889 _0779_
*890 _0780_
*891 _0781_
*892 _0782_
*893 _0783_
*894 _0784_
*895 _0785_
*896 _0786_
*897 _0787_
*898 _0788_
*899 _0789_
*900 _0790_
*901 _0791_
*902 _0792_
*903 _0793_
*904 _0794_
*905 _0795_
*906 _0796_
*907 _0797_
*908 _0798_
*909 _0799_
*910 _0800_
*911 _0801_
*912 _0802_
*913 _0803_
*914 _0804_
*915 _0805_
*916 _0806_
*917 _0807_
*918 _0808_
*919 _0809_
*920 _0810_
*921 _0811_
*922 _0812_
*923 clknet_0_clock
*924 clknet_2_0__leaf_clock
*925 clknet_2_1__leaf_clock
*926 clknet_2_2__leaf_clock
*927 clknet_2_3__leaf_clock
*928 clknet_leaf_0_clock
*929 clknet_leaf_10_clock
*930 clknet_leaf_11_clock
*931 clknet_leaf_12_clock
*932 clknet_leaf_13_clock
*933 clknet_leaf_14_clock
*934 clknet_leaf_15_clock
*935 clknet_leaf_16_clock
*936 clknet_leaf_17_clock
*937 clknet_leaf_18_clock
*938 clknet_leaf_19_clock
*939 clknet_leaf_1_clock
*940 clknet_leaf_20_clock
*941 clknet_leaf_21_clock
*942 clknet_leaf_22_clock
*943 clknet_leaf_23_clock
*944 clknet_leaf_24_clock
*945 clknet_leaf_25_clock
*946 clknet_leaf_26_clock
*947 clknet_leaf_27_clock
*948 clknet_leaf_28_clock
*949 clknet_leaf_29_clock
*950 clknet_leaf_2_clock
*951 clknet_leaf_3_clock
*952 clknet_leaf_4_clock
*953 clknet_leaf_5_clock
*954 clknet_leaf_6_clock
*955 clknet_leaf_7_clock
*956 clknet_leaf_8_clock
*957 clknet_leaf_9_clock
*958 cycle_count\[0\]
*959 cycle_count\[1\]
*960 cycle_count\[2\]
*961 cycle_count\[3\]
*962 net1
*963 net10
*964 net100
*965 net101
*966 net102
*967 net103
*968 net104
*969 net105
*970 net106
*971 net107
*972 net108
*973 net109
*974 net11
*975 net110
*976 net111
*977 net112
*978 net113
*979 net114
*980 net115
*981 net116
*982 net117
*983 net118
*984 net119
*985 net12
*986 net120
*987 net121
*988 net122
*989 net123
*990 net124
*991 net125
*992 net126
*993 net127
*994 net128
*995 net129
*996 net13
*997 net130
*998 net131
*999 net132
*1000 net133
*1001 net134
*1002 net135
*1003 net136
*1004 net137
*1005 net138
*1006 net139
*1007 net14
*1008 net140
*1009 net141
*1010 net142
*1011 net143
*1012 net144
*1013 net145
*1014 net146
*1015 net147
*1016 net148
*1017 net149
*1018 net15
*1019 net150
*1020 net151
*1021 net152
*1022 net153
*1023 net154
*1024 net155
*1025 net156
*1026 net157
*1027 net158
*1028 net159
*1029 net16
*1030 net160
*1031 net161
*1032 net162
*1033 net163
*1034 net164
*1035 net165
*1036 net166
*1037 net167
*1038 net168
*1039 net169
*1040 net17
*1041 net170
*1042 net171
*1043 net172
*1044 net173
*1045 net174
*1046 net175
*1047 net176
*1048 net177
*1049 net178
*1050 net179
*1051 net18
*1052 net180
*1053 net181
*1054 net182
*1055 net183
*1056 net184
*1057 net185
*1058 net186
*1059 net187
*1060 net188
*1061 net189
*1062 net19
*1063 net190
*1064 net191
*1065 net192
*1066 net193
*1067 net194
*1068 net195
*1069 net196
*1070 net197
*1071 net198
*1072 net199
*1073 net2
*1074 net20
*1075 net200
*1076 net201
*1077 net202
*1078 net203
*1079 net204
*1080 net205
*1081 net206
*1082 net207
*1083 net208
*1084 net209
*1085 net21
*1086 net210
*1087 net211
*1088 net212
*1089 net213
*1090 net214
*1091 net215
*1092 net216
*1093 net217
*1094 net218
*1095 net219
*1096 net22
*1097 net220
*1098 net221
*1099 net222
*1100 net223
*1101 net224
*1102 net225
*1103 net226
*1104 net227
*1105 net228
*1106 net229
*1107 net23
*1108 net230
*1109 net231
*1110 net232
*1111 net233
*1112 net234
*1113 net235
*1114 net236
*1115 net237
*1116 net238
*1117 net239
*1118 net24
*1119 net240
*1120 net241
*1121 net242
*1122 net243
*1123 net244
*1124 net245
*1125 net246
*1126 net247
*1127 net248
*1128 net249
*1129 net25
*1130 net250
*1131 net251
*1132 net252
*1133 net253
*1134 net254
*1135 net255
*1136 net256
*1137 net257
*1138 net258
*1139 net259
*1140 net26
*1141 net260
*1142 net261
*1143 net262
*1144 net263
*1145 net264
*1146 net265
*1147 net266
*1148 net267
*1149 net268
*1150 net269
*1151 net27
*1152 net270
*1153 net271
*1154 net272
*1155 net273
*1156 net274
*1157 net275
*1158 net276
*1159 net277
*1160 net278
*1161 net279
*1162 net28
*1163 net280
*1164 net281
*1165 net282
*1166 net283
*1167 net284
*1168 net285
*1169 net286
*1170 net287
*1171 net288
*1172 net289
*1173 net29
*1174 net290
*1175 net291
*1176 net292
*1177 net293
*1178 net294
*1179 net295
*1180 net296
*1181 net297
*1182 net298
*1183 net299
*1184 net3
*1185 net30
*1186 net300
*1187 net301
*1188 net302
*1189 net303
*1190 net304
*1191 net305
*1192 net306
*1193 net307
*1194 net308
*1195 net309
*1196 net31
*1197 net310
*1198 net311
*1199 net312
*1200 net313
*1201 net314
*1202 net315
*1203 net316
*1204 net317
*1205 net318
*1206 net319
*1207 net32
*1208 net320
*1209 net321
*1210 net322
*1211 net323
*1212 net324
*1213 net325
*1214 net326
*1215 net327
*1216 net328
*1217 net329
*1218 net33
*1219 net330
*1220 net331
*1221 net332
*1222 net333
*1223 net334
*1224 net335
*1225 net336
*1226 net337
*1227 net338
*1228 net339
*1229 net34
*1230 net340
*1231 net341
*1232 net342
*1233 net343
*1234 net344
*1235 net345
*1236 net346
*1237 net347
*1238 net348
*1239 net349
*1240 net35
*1241 net350
*1242 net351
*1243 net352
*1244 net353
*1245 net354
*1246 net355
*1247 net356
*1248 net357
*1249 net358
*1250 net359
*1251 net36
*1252 net360
*1253 net361
*1254 net362
*1255 net363
*1256 net364
*1257 net365
*1258 net366
*1259 net367
*1260 net368
*1261 net369
*1262 net37
*1263 net370
*1264 net371
*1265 net372
*1266 net373
*1267 net374
*1268 net375
*1269 net376
*1270 net377
*1271 net378
*1272 net379
*1273 net38
*1274 net380
*1275 net381
*1276 net382
*1277 net383
*1278 net384
*1279 net385
*1280 net386
*1281 net387
*1282 net388
*1283 net389
*1284 net39
*1285 net390
*1286 net391
*1287 net392
*1288 net393
*1289 net394
*1290 net395
*1291 net396
*1292 net397
*1293 net398
*1294 net399
*1295 net4
*1296 net40
*1297 net400
*1298 net401
*1299 net402
*1300 net403
*1301 net404
*1302 net405
*1303 net406
*1304 net407
*1305 net408
*1306 net409
*1307 net41
*1308 net410
*1309 net411
*1310 net412
*1311 net413
*1312 net414
*1313 net415
*1314 net416
*1315 net417
*1316 net418
*1317 net419
*1318 net42
*1319 net420
*1320 net421
*1321 net422
*1322 net423
*1323 net424
*1324 net425
*1325 net426
*1326 net427
*1327 net428
*1328 net429
*1329 net43
*1330 net430
*1331 net431
*1332 net432
*1333 net433
*1334 net434
*1335 net435
*1336 net436
*1337 net437
*1338 net438
*1339 net439
*1340 net44
*1341 net440
*1342 net441
*1343 net442
*1344 net443
*1345 net45
*1346 net46
*1347 net47
*1348 net48
*1349 net49
*1350 net5
*1351 net50
*1352 net51
*1353 net52
*1354 net53
*1355 net54
*1356 net55
*1357 net56
*1358 net57
*1359 net58
*1360 net59
*1361 net6
*1362 net60
*1363 net61
*1364 net62
*1365 net63
*1366 net64
*1367 net65
*1368 net66
*1369 net67
*1370 net68
*1371 net69
*1372 net7
*1373 net70
*1374 net71
*1375 net72
*1376 net73
*1377 net74
*1378 net75
*1379 net76
*1380 net77
*1381 net78
*1382 net79
*1383 net8
*1384 net80
*1385 net81
*1386 net82
*1387 net83
*1388 net84
*1389 net85
*1390 net86
*1391 net87
*1392 net88
*1393 net89
*1394 net9
*1395 net90
*1396 net91
*1397 net92
*1398 net93
*1399 net94
*1400 net95
*1401 net96
*1402 net97
*1403 net98
*1404 net99
*1405 scratch\[0\]\[0\]
*1406 scratch\[0\]\[10\]
*1407 scratch\[0\]\[11\]
*1408 scratch\[0\]\[12\]
*1409 scratch\[0\]\[13\]
*1410 scratch\[0\]\[14\]
*1411 scratch\[0\]\[15\]
*1412 scratch\[0\]\[16\]
*1413 scratch\[0\]\[17\]
*1414 scratch\[0\]\[18\]
*1415 scratch\[0\]\[19\]
*1416 scratch\[0\]\[1\]
*1417 scratch\[0\]\[20\]
*1418 scratch\[0\]\[21\]
*1419 scratch\[0\]\[22\]
*1420 scratch\[0\]\[23\]
*1421 scratch\[0\]\[24\]
*1422 scratch\[0\]\[25\]
*1423 scratch\[0\]\[26\]
*1424 scratch\[0\]\[27\]
*1425 scratch\[0\]\[28\]
*1426 scratch\[0\]\[29\]
*1427 scratch\[0\]\[2\]
*1428 scratch\[0\]\[30\]
*1429 scratch\[0\]\[31\]
*1430 scratch\[0\]\[3\]
*1431 scratch\[0\]\[4\]
*1432 scratch\[0\]\[5\]
*1433 scratch\[0\]\[6\]
*1434 scratch\[0\]\[7\]
*1435 scratch\[0\]\[8\]
*1436 scratch\[0\]\[9\]
*1437 scratch\[1\]\[0\]
*1438 scratch\[1\]\[10\]
*1439 scratch\[1\]\[11\]
*1440 scratch\[1\]\[12\]
*1441 scratch\[1\]\[13\]
*1442 scratch\[1\]\[14\]
*1443 scratch\[1\]\[15\]
*1444 scratch\[1\]\[16\]
*1445 scratch\[1\]\[17\]
*1446 scratch\[1\]\[18\]
*1447 scratch\[1\]\[19\]
*1448 scratch\[1\]\[1\]
*1449 scratch\[1\]\[20\]
*1450 scratch\[1\]\[21\]
*1451 scratch\[1\]\[22\]
*1452 scratch\[1\]\[23\]
*1453 scratch\[1\]\[24\]
*1454 scratch\[1\]\[25\]
*1455 scratch\[1\]\[26\]
*1456 scratch\[1\]\[27\]
*1457 scratch\[1\]\[28\]
*1458 scratch\[1\]\[29\]
*1459 scratch\[1\]\[2\]
*1460 scratch\[1\]\[30\]
*1461 scratch\[1\]\[31\]
*1462 scratch\[1\]\[3\]
*1463 scratch\[1\]\[4\]
*1464 scratch\[1\]\[5\]
*1465 scratch\[1\]\[6\]
*1466 scratch\[1\]\[7\]
*1467 scratch\[1\]\[8\]
*1468 scratch\[1\]\[9\]
*1469 scratch\[2\]\[0\]
*1470 scratch\[2\]\[10\]
*1471 scratch\[2\]\[11\]
*1472 scratch\[2\]\[12\]
*1473 scratch\[2\]\[13\]
*1474 scratch\[2\]\[14\]
*1475 scratch\[2\]\[15\]
*1476 scratch\[2\]\[16\]
*1477 scratch\[2\]\[17\]
*1478 scratch\[2\]\[18\]
*1479 scratch\[2\]\[19\]
*1480 scratch\[2\]\[1\]
*1481 scratch\[2\]\[20\]
*1482 scratch\[2\]\[21\]
*1483 scratch\[2\]\[22\]
*1484 scratch\[2\]\[23\]
*1485 scratch\[2\]\[24\]
*1486 scratch\[2\]\[25\]
*1487 scratch\[2\]\[26\]
*1488 scratch\[2\]\[27\]
*1489 scratch\[2\]\[28\]
*1490 scratch\[2\]\[29\]
*1491 scratch\[2\]\[2\]
*1492 scratch\[2\]\[30\]
*1493 scratch\[2\]\[31\]
*1494 scratch\[2\]\[3\]
*1495 scratch\[2\]\[4\]
*1496 scratch\[2\]\[5\]
*1497 scratch\[2\]\[6\]
*1498 scratch\[2\]\[7\]
*1499 scratch\[2\]\[8\]
*1500 scratch\[2\]\[9\]
*1501 scratch\[3\]\[0\]
*1502 scratch\[3\]\[10\]
*1503 scratch\[3\]\[11\]
*1504 scratch\[3\]\[12\]
*1505 scratch\[3\]\[13\]
*1506 scratch\[3\]\[14\]
*1507 scratch\[3\]\[15\]
*1508 scratch\[3\]\[16\]
*1509 scratch\[3\]\[17\]
*1510 scratch\[3\]\[18\]
*1511 scratch\[3\]\[19\]
*1512 scratch\[3\]\[1\]
*1513 scratch\[3\]\[20\]
*1514 scratch\[3\]\[21\]
*1515 scratch\[3\]\[22\]
*1516 scratch\[3\]\[23\]
*1517 scratch\[3\]\[24\]
*1518 scratch\[3\]\[25\]
*1519 scratch\[3\]\[26\]
*1520 scratch\[3\]\[27\]
*1521 scratch\[3\]\[28\]
*1522 scratch\[3\]\[29\]
*1523 scratch\[3\]\[2\]
*1524 scratch\[3\]\[30\]
*1525 scratch\[3\]\[31\]
*1526 scratch\[3\]\[3\]
*1527 scratch\[3\]\[4\]
*1528 scratch\[3\]\[5\]
*1529 scratch\[3\]\[6\]
*1530 scratch\[3\]\[7\]
*1531 scratch\[3\]\[8\]
*1532 scratch\[3\]\[9\]
*1533 scratch\[4\]\[0\]
*1534 scratch\[4\]\[10\]
*1535 scratch\[4\]\[11\]
*1536 scratch\[4\]\[12\]
*1537 scratch\[4\]\[13\]
*1538 scratch\[4\]\[14\]
*1539 scratch\[4\]\[15\]
*1540 scratch\[4\]\[16\]
*1541 scratch\[4\]\[17\]
*1542 scratch\[4\]\[18\]
*1543 scratch\[4\]\[19\]
*1544 scratch\[4\]\[1\]
*1545 scratch\[4\]\[20\]
*1546 scratch\[4\]\[21\]
*1547 scratch\[4\]\[22\]
*1548 scratch\[4\]\[23\]
*1549 scratch\[4\]\[24\]
*1550 scratch\[4\]\[25\]
*1551 scratch\[4\]\[26\]
*1552 scratch\[4\]\[27\]
*1553 scratch\[4\]\[28\]
*1554 scratch\[4\]\[29\]
*1555 scratch\[4\]\[2\]
*1556 scratch\[4\]\[30\]
*1557 scratch\[4\]\[31\]
*1558 scratch\[4\]\[3\]
*1559 scratch\[4\]\[4\]
*1560 scratch\[4\]\[5\]
*1561 scratch\[4\]\[6\]
*1562 scratch\[4\]\[7\]
*1563 scratch\[4\]\[8\]
*1564 scratch\[4\]\[9\]
*1565 scratch\[5\]\[0\]
*1566 scratch\[5\]\[10\]
*1567 scratch\[5\]\[11\]
*1568 scratch\[5\]\[12\]
*1569 scratch\[5\]\[13\]
*1570 scratch\[5\]\[14\]
*1571 scratch\[5\]\[15\]
*1572 scratch\[5\]\[16\]
*1573 scratch\[5\]\[17\]
*1574 scratch\[5\]\[18\]
*1575 scratch\[5\]\[19\]
*1576 scratch\[5\]\[1\]
*1577 scratch\[5\]\[20\]
*1578 scratch\[5\]\[21\]
*1579 scratch\[5\]\[22\]
*1580 scratch\[5\]\[23\]
*1581 scratch\[5\]\[24\]
*1582 scratch\[5\]\[25\]
*1583 scratch\[5\]\[26\]
*1584 scratch\[5\]\[27\]
*1585 scratch\[5\]\[28\]
*1586 scratch\[5\]\[29\]
*1587 scratch\[5\]\[2\]
*1588 scratch\[5\]\[30\]
*1589 scratch\[5\]\[31\]
*1590 scratch\[5\]\[3\]
*1591 scratch\[5\]\[4\]
*1592 scratch\[5\]\[5\]
*1593 scratch\[5\]\[6\]
*1594 scratch\[5\]\[7\]
*1595 scratch\[5\]\[8\]
*1596 scratch\[5\]\[9\]
*1597 scratch\[6\]\[0\]
*1598 scratch\[6\]\[10\]
*1599 scratch\[6\]\[11\]
*1600 scratch\[6\]\[12\]
*1601 scratch\[6\]\[13\]
*1602 scratch\[6\]\[14\]
*1603 scratch\[6\]\[15\]
*1604 scratch\[6\]\[16\]
*1605 scratch\[6\]\[17\]
*1606 scratch\[6\]\[18\]
*1607 scratch\[6\]\[19\]
*1608 scratch\[6\]\[1\]
*1609 scratch\[6\]\[20\]
*1610 scratch\[6\]\[21\]
*1611 scratch\[6\]\[22\]
*1612 scratch\[6\]\[23\]
*1613 scratch\[6\]\[24\]
*1614 scratch\[6\]\[25\]
*1615 scratch\[6\]\[26\]
*1616 scratch\[6\]\[27\]
*1617 scratch\[6\]\[28\]
*1618 scratch\[6\]\[29\]
*1619 scratch\[6\]\[2\]
*1620 scratch\[6\]\[30\]
*1621 scratch\[6\]\[31\]
*1622 scratch\[6\]\[3\]
*1623 scratch\[6\]\[4\]
*1624 scratch\[6\]\[5\]
*1625 scratch\[6\]\[6\]
*1626 scratch\[6\]\[7\]
*1627 scratch\[6\]\[8\]
*1628 scratch\[6\]\[9\]
*1629 scratch\[7\]\[0\]
*1630 scratch\[7\]\[10\]
*1631 scratch\[7\]\[11\]
*1632 scratch\[7\]\[12\]
*1633 scratch\[7\]\[13\]
*1634 scratch\[7\]\[14\]
*1635 scratch\[7\]\[15\]
*1636 scratch\[7\]\[16\]
*1637 scratch\[7\]\[17\]
*1638 scratch\[7\]\[18\]
*1639 scratch\[7\]\[19\]
*1640 scratch\[7\]\[1\]
*1641 scratch\[7\]\[20\]
*1642 scratch\[7\]\[21\]
*1643 scratch\[7\]\[22\]
*1644 scratch\[7\]\[23\]
*1645 scratch\[7\]\[24\]
*1646 scratch\[7\]\[25\]
*1647 scratch\[7\]\[26\]
*1648 scratch\[7\]\[27\]
*1649 scratch\[7\]\[28\]
*1650 scratch\[7\]\[29\]
*1651 scratch\[7\]\[2\]
*1652 scratch\[7\]\[30\]
*1653 scratch\[7\]\[31\]
*1654 scratch\[7\]\[3\]
*1655 scratch\[7\]\[4\]
*1656 scratch\[7\]\[5\]
*1657 scratch\[7\]\[6\]
*1658 scratch\[7\]\[7\]
*1659 scratch\[7\]\[8\]
*1660 scratch\[7\]\[9\]
*1661 ANTENNA_1
*1662 ANTENNA_2
*1663 ANTENNA_3
*1664 ANTENNA_4
*1665 ANTENNA_5
*1666 ANTENNA_6
*1667 ANTENNA_7
*1668 FILLER_0_106
*1669 FILLER_0_113
*1670 FILLER_0_125
*1671 FILLER_0_131
*1672 FILLER_0_136
*1673 FILLER_0_141
*1674 FILLER_0_145
*1675 FILLER_0_15
*1676 FILLER_0_150
*1677 FILLER_0_162
*1678 FILLER_0_169
*1679 FILLER_0_173
*1680 FILLER_0_178
*1681 FILLER_0_186
*1682 FILLER_0_192
*1683 FILLER_0_197
*1684 FILLER_0_213
*1685 FILLER_0_221
*1686 FILLER_0_225
*1687 FILLER_0_229
*1688 FILLER_0_234
*1689 FILLER_0_241
*1690 FILLER_0_248
*1691 FILLER_0_257
*1692 FILLER_0_262
*1693 FILLER_0_27
*1694 FILLER_0_270
*1695 FILLER_0_276
*1696 FILLER_0_281
*1697 FILLER_0_29
*1698 FILLER_0_297
*1699 FILLER_0_3
*1700 FILLER_0_305
*1701 FILLER_0_309
*1702 FILLER_0_325
*1703 FILLER_0_333
*1704 FILLER_0_341
*1705 FILLER_0_353
*1706 FILLER_0_361
*1707 FILLER_0_365
*1708 FILLER_0_377
*1709 FILLER_0_389
*1710 FILLER_0_393
*1711 FILLER_0_405
*1712 FILLER_0_41
*1713 FILLER_0_417
*1714 FILLER_0_421
*1715 FILLER_0_433
*1716 FILLER_0_445
*1717 FILLER_0_449
*1718 FILLER_0_53
*1719 FILLER_0_57
*1720 FILLER_0_69
*1721 FILLER_0_81
*1722 FILLER_0_85
*1723 FILLER_0_89
*1724 FILLER_0_94
*1725 FILLER_10_102
*1726 FILLER_10_114
*1727 FILLER_10_127
*1728 FILLER_10_139
*1729 FILLER_10_141
*1730 FILLER_10_153
*1731 FILLER_10_165
*1732 FILLER_10_173
*1733 FILLER_10_18
*1734 FILLER_10_191
*1735 FILLER_10_195
*1736 FILLER_10_197
*1737 FILLER_10_226
*1738 FILLER_10_238
*1739 FILLER_10_246
*1740 FILLER_10_251
*1741 FILLER_10_253
*1742 FILLER_10_26
*1743 FILLER_10_265
*1744 FILLER_10_276
*1745 FILLER_10_284
*1746 FILLER_10_29
*1747 FILLER_10_302
*1748 FILLER_10_309
*1749 FILLER_10_313
*1750 FILLER_10_337
*1751 FILLER_10_349
*1752 FILLER_10_361
*1753 FILLER_10_365
*1754 FILLER_10_377
*1755 FILLER_10_389
*1756 FILLER_10_401
*1757 FILLER_10_41
*1758 FILLER_10_413
*1759 FILLER_10_419
*1760 FILLER_10_421
*1761 FILLER_10_433
*1762 FILLER_10_445
*1763 FILLER_10_449
*1764 FILLER_10_53
*1765 FILLER_10_6
*1766 FILLER_10_65
*1767 FILLER_10_77
*1768 FILLER_10_83
*1769 FILLER_10_85
*1770 FILLER_10_94
*1771 FILLER_11_105
*1772 FILLER_11_111
*1773 FILLER_11_113
*1774 FILLER_11_125
*1775 FILLER_11_133
*1776 FILLER_11_149
*1777 FILLER_11_158
*1778 FILLER_11_166
*1779 FILLER_11_169
*1780 FILLER_11_18
*1781 FILLER_11_183
*1782 FILLER_11_192
*1783 FILLER_11_204
*1784 FILLER_11_213
*1785 FILLER_11_221
*1786 FILLER_11_225
*1787 FILLER_11_233
*1788 FILLER_11_257
*1789 FILLER_11_273
*1790 FILLER_11_279
*1791 FILLER_11_281
*1792 FILLER_11_293
*1793 FILLER_11_30
*1794 FILLER_11_303
*1795 FILLER_11_315
*1796 FILLER_11_327
*1797 FILLER_11_335
*1798 FILLER_11_337
*1799 FILLER_11_349
*1800 FILLER_11_361
*1801 FILLER_11_373
*1802 FILLER_11_38
*1803 FILLER_11_385
*1804 FILLER_11_391
*1805 FILLER_11_393
*1806 FILLER_11_405
*1807 FILLER_11_417
*1808 FILLER_11_429
*1809 FILLER_11_441
*1810 FILLER_11_447
*1811 FILLER_11_48
*1812 FILLER_11_6
*1813 FILLER_11_73
*1814 FILLER_11_79
*1815 FILLER_12_102
*1816 FILLER_12_122
*1817 FILLER_12_141
*1818 FILLER_12_145
*1819 FILLER_12_169
*1820 FILLER_12_18
*1821 FILLER_12_195
*1822 FILLER_12_197
*1823 FILLER_12_228
*1824 FILLER_12_253
*1825 FILLER_12_259
*1826 FILLER_12_26
*1827 FILLER_12_285
*1828 FILLER_12_29
*1829 FILLER_12_297
*1830 FILLER_12_305
*1831 FILLER_12_309
*1832 FILLER_12_330
*1833 FILLER_12_342
*1834 FILLER_12_35
*1835 FILLER_12_354
*1836 FILLER_12_362
*1837 FILLER_12_365
*1838 FILLER_12_377
*1839 FILLER_12_389
*1840 FILLER_12_401
*1841 FILLER_12_413
*1842 FILLER_12_419
*1843 FILLER_12_429
*1844 FILLER_12_441
*1845 FILLER_12_449
*1846 FILLER_12_59
*1847 FILLER_12_6
*1848 FILLER_12_78
*1849 FILLER_12_85
*1850 FILLER_13_105
*1851 FILLER_13_111
*1852 FILLER_13_136
*1853 FILLER_13_142
*1854 FILLER_13_153
*1855 FILLER_13_166
*1856 FILLER_13_169
*1857 FILLER_13_177
*1858 FILLER_13_18
*1859 FILLER_13_187
*1860 FILLER_13_199
*1861 FILLER_13_216
*1862 FILLER_13_235
*1863 FILLER_13_249
*1864 FILLER_13_267
*1865 FILLER_13_276
*1866 FILLER_13_281
*1867 FILLER_13_285
*1868 FILLER_13_310
*1869 FILLER_13_335
*1870 FILLER_13_337
*1871 FILLER_13_34
*1872 FILLER_13_349
*1873 FILLER_13_361
*1874 FILLER_13_373
*1875 FILLER_13_385
*1876 FILLER_13_391
*1877 FILLER_13_393
*1878 FILLER_13_405
*1879 FILLER_13_411
*1880 FILLER_13_42
*1881 FILLER_13_439
*1882 FILLER_13_447
*1883 FILLER_13_449
*1884 FILLER_13_54
*1885 FILLER_13_57
*1886 FILLER_13_6
*1887 FILLER_13_69
*1888 FILLER_13_81
*1889 FILLER_13_93
*1890 FILLER_14_102
*1891 FILLER_14_114