* NGSPICE file created from yolo26n_top.ext - technology: sky130A

* Black-box entry subcircuit for sky130_fd_sc_hd__fill_1 abstract view
.subckt sky130_fd_sc_hd__fill_1 VGND VNB VPB VPWR
.ends

* Black-box entry subcircuit for sky130_fd_sc_hd__tapvpwrvgnd_1 abstract view
.subckt sky130_fd_sc_hd__tapvpwrvgnd_1 VGND VPWR
.ends

* Black-box entry subcircuit for sky130_fd_sc_hd__decap_6 abstract view
.subckt sky130_fd_sc_hd__decap_6 VGND VNB VPB VPWR
.ends

* Black-box entry subcircuit for sky130_ef_sc_hd__decap_12 abstract view
.subckt sky130_ef_sc_hd__decap_12 VPWR VGND VPB VNB
.ends

* Black-box entry subcircuit for sky130_fd_sc_hd__fill_2 abstract view
.subckt sky130_fd_sc_hd__fill_2 VGND VNB VPB VPWR
.ends

* Black-box entry subcircuit for sky130_fd_sc_hd__decap_3 abstract view
.subckt sky130_fd_sc_hd__decap_3 VGND VNB VPB VPWR
.ends

* Black-box entry subcircuit for sky130_fd_sc_hd__a21bo_1 abstract view
.subckt sky130_fd_sc_hd__a21bo_1 A1 A2 B1_N VGND VNB VPB VPWR X
.ends

* Black-box entry subcircuit for sky130_fd_sc_hd__mux2_1 abstract view
.subckt sky130_fd_sc_hd__mux2_1 A0 A1 S VGND VNB VPB VPWR X
.ends

* Black-box entry subcircuit for sky130_fd_sc_hd__a221o_1 abstract view
.subckt sky130_fd_sc_hd__a221o_1 A1 A2 B1 B2 C1 VGND VNB VPB VPWR X
.ends

* Black-box entry subcircuit for sky130_fd_sc_hd__decap_8 abstract view
.subckt sky130_fd_sc_hd__decap_8 VGND VNB VPB VPWR
.ends

* Black-box entry subcircuit for sky130_fd_sc_hd__a21o_1 abstract view
.subckt sky130_fd_sc_hd__a21o_1 A1 A2 B1 VGND VNB VPB VPWR X
.ends

* Black-box entry subcircuit for sky130_fd_sc_hd__a21oi_1 abstract view
.subckt sky130_fd_sc_hd__a21oi_1 A1 A2 B1 VGND VNB VPB VPWR Y
.ends

* Black-box entry subcircuit for sky130_fd_sc_hd__clkbuf_4 abstract view
.subckt sky130_fd_sc_hd__clkbuf_4 A VGND VNB VPB VPWR X
.ends

* Black-box entry subcircuit for sky130_fd_sc_hd__a22o_1 abstract view
.subckt sky130_fd_sc_hd__a22o_1 A1 A2 B1 B2 VGND VNB VPB VPWR X
.ends

* Black-box entry subcircuit for sky130_fd_sc_hd__buf_2 abstract view
.subckt sky130_fd_sc_hd__buf_2 A VGND VNB VPB VPWR X
.ends

* Black-box entry subcircuit for sky130_fd_sc_hd__clkbuf_2 abstract view
.subckt sky130_fd_sc_hd__clkbuf_2 A VGND VNB VPB VPWR X
.ends

* Black-box entry subcircuit for sky130_fd_sc_hd__or3b_1 abstract view
.subckt sky130_fd_sc_hd__or3b_1 A B C_N VGND VNB VPB VPWR X
.ends

* Black-box entry subcircuit for sky130_fd_sc_hd__a21boi_1 abstract view
.subckt sky130_fd_sc_hd__a21boi_1 A1 A2 B1_N VGND VNB VPB VPWR Y
.ends

* Black-box entry subcircuit for sky130_fd_sc_hd__and3_1 abstract view
.subckt sky130_fd_sc_hd__and3_1 A B C VGND VNB VPB VPWR X
.ends

* Black-box entry subcircuit for sky130_fd_sc_hd__decap_4 abstract view
.subckt sky130_fd_sc_hd__decap_4 VGND VNB VPB VPWR
.ends

* Black-box entry subcircuit for sky130_fd_sc_hd__dfxtp_1 abstract view
.subckt sky130_fd_sc_hd__dfxtp_1 CLK D VGND VNB VPB VPWR Q
.ends

* Black-box entry subcircuit for sky130_fd_sc_hd__or2_1 abstract view
.subckt sky130_fd_sc_hd__or2_1 A B VGND VNB VPB VPWR X
.ends

* Black-box entry subcircuit for sky130_fd_sc_hd__clkbuf_8 abstract view
.subckt sky130_fd_sc_hd__clkbuf_8 A VGND VNB VPB VPWR X
.ends

* Black-box entry subcircuit for sky130_fd_sc_hd__dlygate4sd3_1 abstract view
.subckt sky130_fd_sc_hd__dlygate4sd3_1 A VGND VNB VPB VPWR X
.ends

* Black-box entry subcircuit for sky130_fd_sc_hd__diode_2 abstract view
.subckt sky130_fd_sc_hd__diode_2 DIODE VGND VNB VPB VPWR
.ends

* Black-box entry subcircuit for sky130_fd_sc_hd__o211a_1 abstract view
.subckt sky130_fd_sc_hd__o211a_1 A1 A2 B1 C1 VGND VNB VPB VPWR X
.ends

* Black-box entry subcircuit for sky130_fd_sc_hd__nand2_1 abstract view
.subckt sky130_fd_sc_hd__nand2_1 A B VGND VNB VPB VPWR Y
.ends

* Black-box entry subcircuit for sky130_fd_sc_hd__mux4_1 abstract view
.subckt sky130_fd_sc_hd__mux4_1 A0 A1 A2 A3 S0 S1 VGND VNB VPB VPWR X
.ends

* Black-box entry subcircuit for sky130_fd_sc_hd__o21ai_1 abstract view
.subckt sky130_fd_sc_hd__o21ai_1 A1 A2 B1 VGND VNB VPB VPWR Y
.ends

* Black-box entry subcircuit for sky130_fd_sc_hd__nand4_1 abstract view
.subckt sky130_fd_sc_hd__nand4_1 A B C D VGND VNB VPB VPWR Y
.ends

* Black-box entry subcircuit for sky130_fd_sc_hd__clkbuf_16 abstract view
.subckt sky130_fd_sc_hd__clkbuf_16 A VGND VNB VPB VPWR X
.ends

* Black-box entry subcircuit for sky130_fd_sc_hd__and4_1 abstract view
.subckt sky130_fd_sc_hd__and4_1 A B C D VGND VNB VPB VPWR X
.ends

* Black-box entry subcircuit for sky130_fd_sc_hd__o2bb2a_1 abstract view
.subckt sky130_fd_sc_hd__o2bb2a_1 A1_N A2_N B1 B2 VGND VNB VPB VPWR X
.ends

* Black-box entry subcircuit for sky130_fd_sc_hd__and2_1 abstract view
.subckt sky130_fd_sc_hd__and2_1 A B VGND VNB VPB VPWR X
.ends

* Black-box entry subcircuit for sky130_fd_sc_hd__nor2_1 abstract view
.subckt sky130_fd_sc_hd__nor2_1 A B VGND VNB VPB VPWR Y
.ends

* Black-box entry subcircuit for sky130_fd_sc_hd__nand3_1 abstract view
.subckt sky130_fd_sc_hd__nand3_1 A B C VGND VNB VPB VPWR Y
.ends

* Black-box entry subcircuit for sky130_fd_sc_hd__nor3b_1 abstract view
.subckt sky130_fd_sc_hd__nor3b_1 A B C_N VGND VNB VPB VPWR Y
.ends

* Black-box entry subcircuit for sky130_fd_sc_hd__clkinvlp_4 abstract view
.subckt sky130_fd_sc_hd__clkinvlp_4 A VGND VNB VPB VPWR Y
.ends

* Black-box entry subcircuit for sky130_fd_sc_hd__a31o_1 abstract view
.subckt sky130_fd_sc_hd__a31o_1 A1 A2 A3 B1 VGND VNB VPB VPWR X
.ends

* Black-box entry subcircuit for sky130_fd_sc_hd__bufinv_16 abstract view
.subckt sky130_fd_sc_hd__bufinv_16 A VGND VNB VPB VPWR Y
.ends

* Black-box entry subcircuit for sky130_fd_sc_hd__inv_8 abstract view
.subckt sky130_fd_sc_hd__inv_8 A VGND VNB VPB VPWR Y
.ends

* Black-box entry subcircuit for sky130_fd_sc_hd__clkinv_2 abstract view
.subckt sky130_fd_sc_hd__clkinv_2 A VGND VNB VPB VPWR Y
.ends

* Black-box entry subcircuit for sky130_fd_sc_hd__dlymetal6s2s_1 abstract view
.subckt sky130_fd_sc_hd__dlymetal6s2s_1 A VGND VNB VPB VPWR X
.ends

* Black-box entry subcircuit for sky130_fd_sc_hd__or3_1 abstract view
.subckt sky130_fd_sc_hd__or3_1 A B C VGND VNB VPB VPWR X
.ends

* Black-box entry subcircuit for sky130_fd_sc_hd__o221a_1 abstract view
.subckt sky130_fd_sc_hd__o221a_1 A1 A2 B1 B2 C1 VGND VNB VPB VPWR X
.ends

* Black-box entry subcircuit for sky130_fd_sc_hd__inv_6 abstract view
.subckt sky130_fd_sc_hd__inv_6 A VGND VNB VPB VPWR Y
.ends

* Black-box entry subcircuit for sky130_fd_sc_hd__buf_1 abstract view
.subckt sky130_fd_sc_hd__buf_1 A VGND VNB VPB VPWR X
.ends

* Black-box entry subcircuit for sky130_fd_sc_hd__inv_2 abstract view
.subckt sky130_fd_sc_hd__inv_2 A VGND VNB VPB VPWR Y
.ends

* Black-box entry subcircuit for sky130_fd_sc_hd__nor3_1 abstract view
.subckt sky130_fd_sc_hd__nor3_1 A B C VGND VNB VPB VPWR Y
.ends

* Black-box entry subcircuit for sky130_fd_sc_hd__and4b_1 abstract view
.subckt sky130_fd_sc_hd__and4b_1 A_N B C D VGND VNB VPB VPWR X
.ends

* Black-box entry subcircuit for sky130_fd_sc_hd__or4_1 abstract view
.subckt sky130_fd_sc_hd__or4_1 A B C D VGND VNB VPB VPWR X
.ends

* Black-box entry subcircuit for sky130_fd_sc_hd__a32o_1 abstract view
.subckt sky130_fd_sc_hd__a32o_1 A1 A2 A3 B1 B2 VGND VNB VPB VPWR X
.ends

* Black-box entry subcircuit for sky130_fd_sc_hd__a31o_2 abstract view
.subckt sky130_fd_sc_hd__a31o_2 A1 A2 A3 B1 VGND VNB VPB VPWR X
.ends

* Black-box entry subcircuit for sky130_fd_sc_hd__a31oi_1 abstract view
.subckt sky130_fd_sc_hd__a31oi_1 A1 A2 A3 B1 VGND VNB VPB VPWR Y
.ends

* Black-box entry subcircuit for sky130_fd_sc_hd__o311a_1 abstract view
.subckt sky130_fd_sc_hd__o311a_1 A1 A2 A3 B1 C1 VGND VNB VPB VPWR X
.ends

* Black-box entry subcircuit for sky130_fd_sc_hd__and3b_1 abstract view
.subckt sky130_fd_sc_hd__and3b_1 A_N B C VGND VNB VPB VPWR X
.ends

* Black-box entry subcircuit for sky130_fd_sc_hd__clkbuf_1 abstract view
.subckt sky130_fd_sc_hd__clkbuf_1 A VGND VNB VPB VPWR X
.ends

* Black-box entry subcircuit for sky130_fd_sc_hd__and2b_1 abstract view
.subckt sky130_fd_sc_hd__and2b_1 A_N B VGND VNB VPB VPWR X
.ends

* Black-box entry subcircuit for sky130_fd_sc_hd__a21oi_4 abstract view
.subckt sky130_fd_sc_hd__a21oi_4 A1 A2 B1 VGND VNB VPB VPWR Y
.ends

* Black-box entry subcircuit for sky130_fd_sc_hd__and4_2 abstract view
.subckt sky130_fd_sc_hd__and4_2 A B C D VGND VNB VPB VPWR X
.ends

* Black-box entry subcircuit for sky130_fd_sc_hd__and4bb_1 abstract view
.subckt sky130_fd_sc_hd__and4bb_1 A_N B_N C D VGND VNB VPB VPWR X
.ends

* Black-box entry subcircuit for sky130_fd_sc_hd__o21a_1 abstract view
.subckt sky130_fd_sc_hd__o21a_1 A1 A2 B1 VGND VNB VPB VPWR X
.ends

* Black-box entry subcircuit for sky130_fd_sc_hd__o21ba_1 abstract view
.subckt sky130_fd_sc_hd__o21ba_1 A1 A2 B1_N VGND VNB VPB VPWR X
.ends

* Black-box entry subcircuit for sky130_fd_sc_hd__or4b_1 abstract view
.subckt sky130_fd_sc_hd__or4b_1 A B C D_N VGND VNB VPB VPWR X
.ends

* Black-box entry subcircuit for sky130_fd_sc_hd__o21bai_1 abstract view
.subckt sky130_fd_sc_hd__o21bai_1 A1 A2 B1_N VGND VNB VPB VPWR Y
.ends

* Black-box entry subcircuit for sky130_fd_sc_hd__a41o_1 abstract view
.subckt sky130_fd_sc_hd__a41o_1 A1 A2 A3 A4 B1 VGND VNB VPB VPWR X
.ends

* Black-box entry subcircuit for sky130_fd_sc_hd__o22a_1 abstract view
.subckt sky130_fd_sc_hd__o22a_1 A1 A2 B1 B2 VGND VNB VPB VPWR X
.ends

* Black-box entry subcircuit for sky130_fd_sc_hd__o32a_1 abstract view
.subckt sky130_fd_sc_hd__o32a_1 A1 A2 A3 B1 B2 VGND VNB VPB VPWR X
.ends

* Black-box entry subcircuit for sky130_fd_sc_hd__xnor2_1 abstract view
.subckt sky130_fd_sc_hd__xnor2_1 A B VGND VNB VPB VPWR Y
.ends

* Black-box entry subcircuit for sky130_fd_sc_hd__or4_2 abstract view
.subckt sky130_fd_sc_hd__or4_2 A B C D VGND VNB VPB VPWR X
.ends

* Black-box entry subcircuit for sky130_fd_sc_hd__or4b_4 abstract view
.subckt sky130_fd_sc_hd__or4b_4 A B C D_N VGND VNB VPB VPWR X
.ends

* Black-box entry subcircuit for sky130_fd_sc_hd__a211o_1 abstract view
.subckt sky130_fd_sc_hd__a211o_1 A1 A2 B1 C1 VGND VNB VPB VPWR X
.ends

.subckt yolo26n_top VGND VPWR busy clock current_stage[0] current_stage[1] current_stage[2]
+ current_stage[3] current_stage[4] done host_input_addr[0] host_input_addr[10] host_input_addr[11]
+ host_input_addr[12] host_input_addr[13] host_input_addr[14] host_input_addr[15]
+ host_input_addr[16] host_input_addr[17] host_input_addr[18] host_input_addr[19]
+ host_input_addr[1] host_input_addr[20] host_input_addr[2] host_input_addr[3] host_input_addr[4]
+ host_input_addr[5] host_input_addr[6] host_input_addr[7] host_input_addr[8] host_input_addr[9]
+ host_input_data[0] host_input_data[10] host_input_data[11] host_input_data[12] host_input_data[13]
+ host_input_data[14] host_input_data[15] host_input_data[16] host_input_data[17]
+ host_input_data[18] host_input_data[19] host_input_data[1] host_input_data[20] host_input_data[21]
+ host_input_data[22] host_input_data[23] host_input_data[24] host_input_data[25]
+ host_input_data[26] host_input_data[27] host_input_data[28] host_input_data[29]
+ host_input_data[2] host_input_data[30] host_input_data[31] host_input_data[3] host_input_data[4]
+ host_input_data[5] host_input_data[6] host_input_data[7] host_input_data[8] host_input_data[9]
+ host_input_we host_output_addr[0] host_output_addr[10] host_output_addr[1] host_output_addr[2]
+ host_output_addr[3] host_output_addr[4] host_output_addr[5] host_output_addr[6]
+ host_output_addr[7] host_output_addr[8] host_output_addr[9] host_output_data[0]
+ host_output_data[10] host_output_data[11] host_output_data[12] host_output_data[13]
+ host_output_data[14] host_output_data[15] host_output_data[16] host_output_data[17]
+ host_output_data[18] host_output_data[19] host_output_data[1] host_output_data[20]
+ host_output_data[21] host_output_data[22] host_output_data[23] host_output_data[24]
+ host_output_data[25] host_output_data[26] host_output_data[27] host_output_data[28]
+ host_output_data[29] host_output_data[2] host_output_data[30] host_output_data[31]
+ host_output_data[3] host_output_data[4] host_output_data[5] host_output_data[6]
+ host_output_data[7] host_output_data[8] host_output_data[9] reset start
XFILLER_54_203 VGND VGND VPWR VPWR sky130_fd_sc_hd__fill_1
XTAP_TAPCELL_ROW_37_456 VGND VPWR sky130_fd_sc_hd__tapvpwrvgnd_1
XFILLER_52_29 VGND VGND VPWR VPWR sky130_fd_sc_hd__decap_6
XFILLER_52_18 VGND VGND VPWR VPWR sky130_fd_sc_hd__fill_1
XTAP_TAPCELL_ROW_20_323 VGND VPWR sky130_fd_sc_hd__tapvpwrvgnd_1
XFILLER_18_406 VPWR VGND VPWR VGND sky130_ef_sc_hd__decap_12
XTAP_TAPCELL_ROW_71_735 VGND VPWR sky130_fd_sc_hd__tapvpwrvgnd_1
XFILLER_60_239 VGND VGND VPWR VPWR sky130_fd_sc_hd__decap_6
XFILLER_45_225 VPWR VGND VPWR VGND sky130_ef_sc_hd__decap_12
XFILLER_26_52 VGND VGND VPWR VPWR sky130_fd_sc_hd__fill_2
XFILLER_13_111 VGND VGND VPWR VPWR sky130_fd_sc_hd__fill_1
XFILLER_13_166 VGND VGND VPWR VPWR sky130_fd_sc_hd__fill_2
XFILLER_13_177 VGND VGND VPWR VPWR sky130_fd_sc_hd__decap_3
XFILLER_13_199 VGND VGND VPWR VPWR sky130_fd_sc_hd__decap_6
X_1270_ net25 net166 _0313_ VGND VGND VPWR VPWR _0141_ sky130_fd_sc_hd__a21bo_1
XFILLER_67_81 VPWR VGND VPWR VGND sky130_ef_sc_hd__decap_12
XFILLER_24_409 VGND VGND VPWR VPWR sky130_fd_sc_hd__fill_2
XTAP_TAPCELL_ROW_34_437 VGND VPWR sky130_fd_sc_hd__tapvpwrvgnd_1
X_1606_ net35 _0534_ net141 VGND VGND VPWR VPWR _0535_ sky130_fd_sc_hd__mux2_1
X_0985_ scratch\[4\]\[23\] net229 net219 scratch\[5\]\[23\] net235 VGND VGND VPWR
+ VPWR _0724_ sky130_fd_sc_hd__a221o_1
XFILLER_74_309 VPWR VGND VPWR VGND sky130_ef_sc_hd__decap_12
XFILLER_59_328 VGND VGND VPWR VPWR sky130_fd_sc_hd__decap_8
X_1537_ net303 net107 _0479_ VGND VGND VPWR VPWR _0242_ sky130_fd_sc_hd__a21o_1
X_1399_ net150 _0393_ scratch\[0\]\[16\] VGND VGND VPWR VPWR _0397_ sky130_fd_sc_hd__a21oi_1
Xfanout138 net141 VGND VGND VPWR VPWR net138 sky130_fd_sc_hd__clkbuf_4
X_1468_ net48 net142 net112 net428 VGND VGND VPWR VPWR _0207_ sky130_fd_sc_hd__a22o_1
Xfanout116 _0445_ VGND VGND VPWR VPWR net116 sky130_fd_sc_hd__buf_2
Xfanout127 net131 VGND VGND VPWR VPWR net127 sky130_fd_sc_hd__buf_2
Xfanout149 _0349_ VGND VGND VPWR VPWR net149 sky130_fd_sc_hd__clkbuf_2
XFILLER_63_39 VPWR VGND VPWR VGND sky130_ef_sc_hd__decap_12
XFILLER_27_225 VPWR VGND VPWR VGND sky130_ef_sc_hd__decap_12
XFILLER_23_431 VGND VGND VPWR VPWR sky130_fd_sc_hd__fill_1
XFILLER_10_114 VGND VGND VPWR VPWR sky130_fd_sc_hd__decap_6
XFILLER_2_357 VGND VGND VPWR VPWR sky130_fd_sc_hd__decap_6
XFILLER_18_236 VGND VGND VPWR VPWR sky130_fd_sc_hd__fill_2
XFILLER_52_6 VPWR VGND VPWR VGND sky130_ef_sc_hd__decap_12
XFILLER_56_309 VPWR VGND VPWR VGND sky130_ef_sc_hd__decap_12
X_1253_ net240 net162 scratch\[7\]\[4\] VGND VGND VPWR VPWR _0305_ sky130_fd_sc_hd__or3b_1
X_1322_ net212 cycle_count\[0\] net205 VGND VGND VPWR VPWR _0341_ sky130_fd_sc_hd__a21boi_1
XTAP_TAPCELL_ROW_47_540 VGND VPWR sky130_fd_sc_hd__tapvpwrvgnd_1
X_1184_ net236 net169 scratch\[6\]\[2\] VGND VGND VPWR VPWR _0270_ sky130_fd_sc_hd__or3b_1
X_0968_ net210 _0706_ _0709_ VGND VGND VPWR VPWR net87 sky130_fd_sc_hd__and3_1
XFILLER_20_401 VPWR VGND VPWR VGND sky130_ef_sc_hd__decap_12
X_0899_ scratch\[4\]\[9\] net224 net215 scratch\[5\]\[9\] net232 VGND VGND VPWR VPWR
+ _0652_ sky130_fd_sc_hd__a221o_1
XFILLER_74_139 VGND VGND VPWR VPWR sky130_fd_sc_hd__fill_1
XFILLER_74_27 VGND VGND VPWR VPWR sky130_fd_sc_hd__fill_1
XFILLER_47_309 VPWR VGND VPWR VGND sky130_ef_sc_hd__decap_12
XFILLER_70_389 VPWR VGND VPWR VGND sky130_ef_sc_hd__decap_12
XFILLER_70_345 VPWR VGND VPWR VGND sky130_ef_sc_hd__decap_12
XFILLER_70_301 VGND VGND VPWR VPWR sky130_fd_sc_hd__decap_6
XTAP_TAPCELL_ROW_53_587 VGND VPWR sky130_fd_sc_hd__tapvpwrvgnd_1
XTAP_TAPCELL_ROW_2_176 VGND VPWR sky130_fd_sc_hd__tapvpwrvgnd_1
XFILLER_23_53 VGND VGND VPWR VPWR sky130_fd_sc_hd__decap_3
XFILLER_7_405 VPWR VGND VPWR VGND sky130_ef_sc_hd__decap_12
XFILLER_7_449 VGND VGND VPWR VPWR sky130_fd_sc_hd__decap_4
XFILLER_38_309 VPWR VGND VPWR VGND sky130_ef_sc_hd__decap_12
XFILLER_2_165 VPWR VGND VPWR VGND sky130_ef_sc_hd__decap_12
XFILLER_2_121 VPWR VGND VPWR VGND sky130_ef_sc_hd__decap_12
XFILLER_73_161 VGND VGND VPWR VPWR sky130_fd_sc_hd__decap_6
XFILLER_0_57 VPWR VGND VPWR VGND sky130_ef_sc_hd__decap_12
X_1871_ clknet_leaf_8_clock _0213_ VGND VGND VPWR VPWR scratch\[3\]\[10\] sky130_fd_sc_hd__dfxtp_1
X_0822_ net238 _0584_ VGND VGND VPWR VPWR _0585_ sky130_fd_sc_hd__or2_1
XTAP_TAPCELL_ROW_16_289 VGND VPWR sky130_fd_sc_hd__tapvpwrvgnd_1
XFILLER_56_128 VPWR VGND VPWR VGND sky130_ef_sc_hd__decap_12
X_1236_ net244 net174 scratch\[6\]\[28\] VGND VGND VPWR VPWR _0296_ sky130_fd_sc_hd__or3b_1
X_1305_ net237 net160 scratch\[7\]\[30\] VGND VGND VPWR VPWR _0331_ sky130_fd_sc_hd__or3b_1
XFILLER_64_161 VGND VGND VPWR VPWR sky130_fd_sc_hd__decap_6
X_1098_ net52 net185 net128 net329 VGND VGND VPWR VPWR _0041_ sky130_fd_sc_hd__a22o_1
XFILLER_52_301 VGND VGND VPWR VPWR sky130_fd_sc_hd__decap_6
X_1167_ net380 net123 _0806_ VGND VGND VPWR VPWR _0091_ sky130_fd_sc_hd__a21o_1
XFILLER_37_364 VGND VGND VPWR VPWR sky130_fd_sc_hd__decap_4
XFILLER_60_29 VPWR VGND VPWR VGND sky130_ef_sc_hd__decap_12
XFILLER_4_419 VGND VGND VPWR VPWR sky130_fd_sc_hd__fill_1
XFILLER_69_27 VPWR VGND VPWR VGND sky130_ef_sc_hd__decap_12
XTAP_TAPCELL_ROW_66_690 VGND VPWR sky130_fd_sc_hd__tapvpwrvgnd_1
XTAP_TAPCELL_ROW_58_624 VGND VPWR sky130_fd_sc_hd__tapvpwrvgnd_1
XFILLER_43_334 VGND VGND VPWR VPWR sky130_fd_sc_hd__fill_2
XFILLER_28_320 VGND VGND VPWR VPWR sky130_fd_sc_hd__fill_2
XFILLER_70_197 VPWR VGND VPWR VGND sky130_ef_sc_hd__decap_12
XFILLER_70_153 VPWR VGND VPWR VGND sky130_ef_sc_hd__decap_12
XFILLER_34_41 VGND VGND VPWR VPWR sky130_fd_sc_hd__fill_2
XFILLER_3_441 VGND VGND VPWR VPWR sky130_fd_sc_hd__decap_6
XFILLER_7_279 VGND VGND VPWR VPWR sky130_fd_sc_hd__fill_1
XFILLER_59_93 VPWR VGND VPWR VGND sky130_ef_sc_hd__decap_12
XFILLER_19_320 VGND VGND VPWR VPWR sky130_fd_sc_hd__fill_2
XFILLER_75_81 VGND VGND VPWR VPWR sky130_fd_sc_hd__decap_3
XTAP_TAPCELL_ROW_29_392 VGND VPWR sky130_fd_sc_hd__tapvpwrvgnd_1
X_1021_ scratch\[4\]\[29\] net222 net217 scratch\[5\]\[29\] net231 VGND VGND VPWR
+ VPWR _0754_ sky130_fd_sc_hd__a221o_1
X_1923_ clknet_leaf_24_clock _0265_ VGND VGND VPWR VPWR scratch\[1\]\[30\] sky130_fd_sc_hd__dfxtp_1
X_1854_ clknet_leaf_17_clock _0196_ VGND VGND VPWR VPWR scratch\[0\]\[25\] sky130_fd_sc_hd__dfxtp_1
Xclkbuf_leaf_19_clock clknet_2_2__leaf_clock VGND VGND VPWR VPWR clknet_leaf_19_clock
+ sky130_fd_sc_hd__clkbuf_8
X_1785_ clknet_leaf_26_clock _0128_ VGND VGND VPWR VPWR scratch\[6\]\[31\] sky130_fd_sc_hd__dfxtp_1
X_1219_ net32 net178 _0287_ VGND VGND VPWR VPWR _0116_ sky130_fd_sc_hd__a21bo_1
XTAP_TAPCELL_ROW_55_605 VGND VPWR sky130_fd_sc_hd__tapvpwrvgnd_1
XFILLER_55_18 VGND VGND VPWR VPWR sky130_fd_sc_hd__decap_3
XFILLER_29_139 VGND VGND VPWR VPWR sky130_fd_sc_hd__decap_3
XFILLER_25_301 VGND VGND VPWR VPWR sky130_fd_sc_hd__decap_8
XFILLER_71_39 VPWR VGND VPWR VGND sky130_ef_sc_hd__decap_12
XTAP_TAPCELL_ROW_63_671 VGND VPWR sky130_fd_sc_hd__tapvpwrvgnd_1
XFILLER_52_120 VGND VGND VPWR VPWR sky130_fd_sc_hd__fill_1
XFILLER_40_348 VPWR VGND VPWR VGND sky130_ef_sc_hd__decap_12
XFILLER_20_54 VGND VGND VPWR VPWR sky130_fd_sc_hd__decap_3
Xhold74 scratch\[4\]\[20\] VGND VGND VPWR VPWR net350 sky130_fd_sc_hd__dlygate4sd3_1
Xhold63 scratch\[5\]\[21\] VGND VGND VPWR VPWR net339 sky130_fd_sc_hd__dlygate4sd3_1
XFILLER_48_448 VGND VGND VPWR VPWR sky130_fd_sc_hd__decap_4
Xhold52 scratch\[5\]\[13\] VGND VGND VPWR VPWR net328 sky130_fd_sc_hd__dlygate4sd3_1
XFILLER_29_63 VPWR VGND VPWR VGND sky130_ef_sc_hd__decap_12
Xhold30 scratch\[1\]\[28\] VGND VGND VPWR VPWR net306 sky130_fd_sc_hd__dlygate4sd3_1
XFILLER_0_433 VPWR VGND VPWR VGND sky130_ef_sc_hd__decap_12
Xhold41 scratch\[4\]\[3\] VGND VGND VPWR VPWR net317 sky130_fd_sc_hd__dlygate4sd3_1
XFILLER_75_256 VGND VGND VPWR VPWR sky130_fd_sc_hd__fill_2
XFILLER_63_429 VPWR VGND VPWR VGND sky130_ef_sc_hd__decap_12
Xhold85 scratch\[5\]\[7\] VGND VGND VPWR VPWR net361 sky130_fd_sc_hd__dlygate4sd3_1
Xhold96 scratch\[4\]\[10\] VGND VGND VPWR VPWR net372 sky130_fd_sc_hd__dlygate4sd3_1
XFILLER_31_304 VPWR VGND VPWR VGND sky130_ef_sc_hd__decap_12
XFILLER_28_161 VGND VGND VPWR VPWR sky130_fd_sc_hd__decap_3
XTAP_TAPCELL_ROW_26_373 VGND VPWR sky130_fd_sc_hd__tapvpwrvgnd_1
XFILLER_16_334 VPWR VGND VPWR VGND sky130_ef_sc_hd__decap_12
XTAP_TAPCELL_ROW_18_307 VGND VPWR sky130_fd_sc_hd__tapvpwrvgnd_1
XFILLER_31_337 VGND VGND VPWR VPWR sky130_fd_sc_hd__fill_1
X_1570_ net196 _0504_ _0505_ VGND VGND VPWR VPWR _0506_ sky130_fd_sc_hd__and3_1
XFILLER_3_293 VPWR VGND VPWR VGND sky130_ef_sc_hd__decap_12
XANTENNA_5 net273 VGND VGND VPWR VPWR sky130_fd_sc_hd__diode_2
XTAP_TAPCELL_ROW_69_719 VGND VPWR sky130_fd_sc_hd__tapvpwrvgnd_1
XFILLER_19_161 VGND VGND VPWR VPWR sky130_fd_sc_hd__decap_6
XTAP_TAPCELL_ROW_60_641 VGND VPWR sky130_fd_sc_hd__tapvpwrvgnd_1
XFILLER_34_197 VGND VGND VPWR VPWR sky130_fd_sc_hd__decap_8
X_1004_ net250 _0736_ _0739_ net208 VGND VGND VPWR VPWR net93 sky130_fd_sc_hd__o211a_1
X_1768_ clknet_leaf_7_clock _0111_ VGND VGND VPWR VPWR scratch\[6\]\[14\] sky130_fd_sc_hd__dfxtp_1
X_1837_ clknet_leaf_3_clock _0179_ VGND VGND VPWR VPWR scratch\[0\]\[8\] sky130_fd_sc_hd__dfxtp_1
X_1906_ clknet_leaf_2_clock _0248_ VGND VGND VPWR VPWR scratch\[1\]\[13\] sky130_fd_sc_hd__dfxtp_1
X_1699_ clknet_leaf_8_clock _0042_ VGND VGND VPWR VPWR scratch\[5\]\[9\] sky130_fd_sc_hd__dfxtp_1
XFILLER_45_418 VGND VGND VPWR VPWR sky130_fd_sc_hd__fill_2
XFILLER_13_337 VPWR VGND VPWR VGND sky130_ef_sc_hd__decap_12
XFILLER_21_370 VGND VGND VPWR VPWR sky130_fd_sc_hd__fill_1
XFILLER_21_381 VGND VGND VPWR VPWR sky130_fd_sc_hd__decap_8
Xoutput75 net75 VGND VGND VPWR VPWR host_output_data[0] sky130_fd_sc_hd__clkbuf_4
Xoutput97 net97 VGND VGND VPWR VPWR host_output_data[2] sky130_fd_sc_hd__clkbuf_4
XFILLER_0_241 VGND VGND VPWR VPWR sky130_fd_sc_hd__decap_3
Xoutput86 net86 VGND VGND VPWR VPWR host_output_data[1] sky130_fd_sc_hd__clkbuf_4
XTAP_TAPCELL_ROW_74_755 VGND VPWR sky130_fd_sc_hd__tapvpwrvgnd_1
XFILLER_71_281 VPWR VGND VPWR VGND sky130_ef_sc_hd__decap_12
XFILLER_44_440 VGND VGND VPWR VPWR sky130_fd_sc_hd__fill_1
XFILLER_31_134 VGND VGND VPWR VPWR sky130_fd_sc_hd__decap_4
XFILLER_16_197 VGND VGND VPWR VPWR sky130_fd_sc_hd__fill_1
XFILLER_8_363 VGND VGND VPWR VPWR sky130_fd_sc_hd__fill_1
X_1622_ net280 net109 _0547_ VGND VGND VPWR VPWR _0259_ sky130_fd_sc_hd__a21o_1
X_1553_ scratch\[3\]\[11\] scratch\[2\]\[11\] VGND VGND VPWR VPWR _0492_ sky130_fd_sc_hd__nand2_1
X_1484_ net34 net146 net116 net429 VGND VGND VPWR VPWR _0223_ sky130_fd_sc_hd__a22o_1
XFILLER_39_201 VGND VGND VPWR VPWR sky130_fd_sc_hd__fill_1
XTAP_TAPCELL_ROW_37_457 VGND VPWR sky130_fd_sc_hd__tapvpwrvgnd_1
XFILLER_50_421 VPWR VGND VPWR VGND sky130_ef_sc_hd__decap_12
XTAP_TAPCELL_ROW_20_324 VGND VPWR sky130_fd_sc_hd__tapvpwrvgnd_1
XFILLER_18_418 VGND VGND VPWR VPWR sky130_fd_sc_hd__fill_2
XFILLER_45_248 VGND VGND VPWR VPWR sky130_fd_sc_hd__fill_1
XFILLER_42_85 VPWR VGND VPWR VGND sky130_ef_sc_hd__decap_12
XFILLER_3_57 VPWR VGND VPWR VGND sky130_ef_sc_hd__decap_12
XFILLER_67_93 VPWR VGND VPWR VGND sky130_ef_sc_hd__decap_12
XFILLER_44_292 VGND VGND VPWR VPWR sky130_fd_sc_hd__fill_1
X_0984_ scratch\[6\]\[23\] scratch\[7\]\[23\] net272 VGND VGND VPWR VPWR _0723_ sky130_fd_sc_hd__mux2_1
XTAP_TAPCELL_ROW_34_438 VGND VPWR sky130_fd_sc_hd__tapvpwrvgnd_1
XFILLER_32_421 VPWR VGND VPWR VGND sky130_ef_sc_hd__decap_12
X_1536_ net51 _0478_ net138 VGND VGND VPWR VPWR _0479_ sky130_fd_sc_hd__mux2_1
X_1605_ net201 _0532_ _0533_ VGND VGND VPWR VPWR _0534_ sky130_fd_sc_hd__and3_1
XFILLER_67_362 VPWR VGND VPWR VGND sky130_ef_sc_hd__decap_12
Xfanout128 net131 VGND VGND VPWR VPWR net128 sky130_fd_sc_hd__buf_2
X_1398_ net28 net156 _0396_ VGND VGND VPWR VPWR _0186_ sky130_fd_sc_hd__a21o_1
Xfanout139 net140 VGND VGND VPWR VPWR net139 sky130_fd_sc_hd__clkbuf_4
X_1467_ net47 net142 net112 net416 VGND VGND VPWR VPWR _0206_ sky130_fd_sc_hd__a22o_1
Xfanout117 net120 VGND VGND VPWR VPWR net117 sky130_fd_sc_hd__buf_2
XFILLER_35_281 VPWR VGND VPWR VGND sky130_ef_sc_hd__decap_12
XFILLER_35_270 VGND VGND VPWR VPWR sky130_fd_sc_hd__decap_8
XFILLER_27_237 VPWR VGND VPWR VGND sky130_ef_sc_hd__decap_12
XPHY_EDGE_ROW_19_Left_95 VGND VGND VPWR VPWR sky130_fd_sc_hd__decap_3
Xhold160 scratch\[3\]\[5\] VGND VGND VPWR VPWR net436 sky130_fd_sc_hd__dlygate4sd3_1
XFILLER_58_362 VGND VGND VPWR VPWR sky130_fd_sc_hd__fill_2
XFILLER_37_74 VPWR VGND VPWR VGND sky130_ef_sc_hd__decap_12
XFILLER_37_30 VPWR VGND VPWR VGND sky130_ef_sc_hd__decap_12
XFILLER_53_95 VGND VGND VPWR VPWR sky130_fd_sc_hd__fill_1
XTAP_TAPCELL_ROW_31_408 VGND VPWR sky130_fd_sc_hd__tapvpwrvgnd_1
XFILLER_14_421 VGND VGND VPWR VPWR sky130_fd_sc_hd__decap_6
XFILLER_14_432 VPWR VGND VPWR VGND sky130_ef_sc_hd__decap_12
X_1321_ net373 _0339_ _0340_ VGND VGND VPWR VPWR _0165_ sky130_fd_sc_hd__a21oi_1
XFILLER_1_391 VGND VGND VPWR VPWR sky130_fd_sc_hd__fill_1
X_1252_ net47 net159 _0304_ VGND VGND VPWR VPWR _0132_ sky130_fd_sc_hd__a21bo_1
XFILLER_64_365 VPWR VGND VPWR VGND sky130_ef_sc_hd__decap_12
XFILLER_64_354 VGND VGND VPWR VPWR sky130_fd_sc_hd__decap_8
XTAP_TAPCELL_ROW_47_541 VGND VPWR sky130_fd_sc_hd__tapvpwrvgnd_1
X_1183_ net33 net169 _0269_ VGND VGND VPWR VPWR _0098_ sky130_fd_sc_hd__a21bo_1
X_0967_ net260 _0707_ _0708_ VGND VGND VPWR VPWR _0709_ sky130_fd_sc_hd__a21o_1
XFILLER_20_413 VGND VGND VPWR VPWR sky130_fd_sc_hd__decap_6
X_0898_ scratch\[6\]\[9\] scratch\[7\]\[9\] net266 VGND VGND VPWR VPWR _0651_ sky130_fd_sc_hd__mux2_1
X_1519_ scratch\[3\]\[4\] scratch\[2\]\[4\] VGND VGND VPWR VPWR _0465_ sky130_fd_sc_hd__or2_1
XPHY_EDGE_ROW_12_Right_12 VGND VGND VPWR VPWR sky130_fd_sc_hd__decap_3
XFILLER_55_365 VGND VGND VPWR VPWR sky130_fd_sc_hd__decap_8
XTAP_TAPCELL_ROW_2_177 VGND VPWR sky130_fd_sc_hd__tapvpwrvgnd_1
XPHY_EDGE_ROW_21_Right_21 VGND VGND VPWR VPWR sky130_fd_sc_hd__decap_3
XFILLER_70_357 VGND VGND VPWR VPWR sky130_fd_sc_hd__decap_6
XTAP_TAPCELL_ROW_53_588 VGND VPWR sky130_fd_sc_hd__tapvpwrvgnd_1
XFILLER_23_21 VPWR VGND VPWR VGND sky130_ef_sc_hd__decap_12
XPHY_EDGE_ROW_30_Right_30 VGND VGND VPWR VPWR sky130_fd_sc_hd__decap_3
XFILLER_7_417 VPWR VGND VPWR VGND sky130_ef_sc_hd__decap_12
XFILLER_65_129 VGND VGND VPWR VPWR sky130_fd_sc_hd__decap_8
XFILLER_2_177 VPWR VGND VPWR VGND sky130_ef_sc_hd__decap_12
XFILLER_2_133 VGND VGND VPWR VPWR sky130_fd_sc_hd__decap_6
XFILLER_64_83 VGND VGND VPWR VPWR sky130_fd_sc_hd__fill_1
XFILLER_46_365 VPWR VGND VPWR VGND sky130_ef_sc_hd__decap_12
XFILLER_46_321 VGND VGND VPWR VPWR sky130_fd_sc_hd__decap_6
XFILLER_0_69 VPWR VGND VPWR VGND sky130_ef_sc_hd__decap_12
X_1870_ clknet_leaf_7_clock _0212_ VGND VGND VPWR VPWR scratch\[3\]\[9\] sky130_fd_sc_hd__dfxtp_1
X_0821_ cycle_count\[2\] _0583_ VGND VGND VPWR VPWR _0584_ sky130_fd_sc_hd__or2_1
X_1166_ net7 net198 net181 net28 VGND VGND VPWR VPWR _0806_ sky130_fd_sc_hd__a22o_1
X_1235_ net41 net175 _0295_ VGND VGND VPWR VPWR _0124_ sky130_fd_sc_hd__a21bo_1
X_1304_ net43 net165 _0330_ VGND VGND VPWR VPWR _0158_ sky130_fd_sc_hd__a21bo_1
XFILLER_64_184 VGND VGND VPWR VPWR sky130_fd_sc_hd__decap_4
X_1097_ net51 net185 net128 net361 VGND VGND VPWR VPWR _0040_ sky130_fd_sc_hd__a22o_1
XFILLER_20_221 VPWR VGND VPWR VGND sky130_ef_sc_hd__decap_12
XFILLER_69_39 VPWR VGND VPWR VGND sky130_ef_sc_hd__decap_12
XFILLER_75_405 VPWR VGND VPWR VGND sky130_ef_sc_hd__decap_12
XFILLER_75_449 VGND VGND VPWR VPWR sky130_fd_sc_hd__decap_4
XFILLER_70_121 VPWR VGND VPWR VGND sky130_ef_sc_hd__decap_12
XTAP_TAPCELL_ROW_66_691 VGND VPWR sky130_fd_sc_hd__tapvpwrvgnd_1
XTAP_TAPCELL_ROW_58_625 VGND VPWR sky130_fd_sc_hd__tapvpwrvgnd_1
XFILLER_43_302 VPWR VGND VPWR VGND sky130_ef_sc_hd__decap_12
XFILLER_28_387 VGND VGND VPWR VPWR sky130_fd_sc_hd__decap_8
XFILLER_28_365 VGND VGND VPWR VPWR sky130_fd_sc_hd__fill_2
XFILLER_70_165 VPWR VGND VPWR VGND sky130_ef_sc_hd__decap_12
XFILLER_50_41 VPWR VGND VPWR VGND sky130_ef_sc_hd__decap_12
XFILLER_34_75 VGND VGND VPWR VPWR sky130_fd_sc_hd__decap_8
XFILLER_34_53 VGND VGND VPWR VPWR sky130_fd_sc_hd__decap_6
XFILLER_7_225 VPWR VGND VPWR VGND sky130_ef_sc_hd__decap_12
XFILLER_11_221 VGND VGND VPWR VPWR sky130_fd_sc_hd__decap_3
XFILLER_50_85 VGND VGND VPWR VPWR sky130_fd_sc_hd__decap_8
XFILLER_38_107 VGND VGND VPWR VPWR sky130_fd_sc_hd__decap_4
X_1020_ scratch\[6\]\[29\] scratch\[7\]\[29\] net268 VGND VGND VPWR VPWR _0753_ sky130_fd_sc_hd__mux2_1
XFILLER_42_390 VPWR VGND VPWR VGND sky130_ef_sc_hd__decap_12
XTAP_TAPCELL_ROW_29_393 VGND VPWR sky130_fd_sc_hd__tapvpwrvgnd_1
X_1922_ clknet_leaf_25_clock _0264_ VGND VGND VPWR VPWR scratch\[1\]\[29\] sky130_fd_sc_hd__dfxtp_1
X_1853_ clknet_leaf_23_clock _0195_ VGND VGND VPWR VPWR scratch\[0\]\[24\] sky130_fd_sc_hd__dfxtp_1
X_1784_ clknet_leaf_26_clock _0127_ VGND VGND VPWR VPWR scratch\[6\]\[30\] sky130_fd_sc_hd__dfxtp_1
XTAP_TAPCELL_ROW_12_260 VGND VPWR sky130_fd_sc_hd__tapvpwrvgnd_1
XFILLER_57_405 VGND VGND VPWR VPWR sky130_fd_sc_hd__fill_1
XFILLER_72_419 VGND VGND VPWR VPWR sky130_fd_sc_hd__fill_1
X_1218_ net246 net178 scratch\[6\]\[19\] VGND VGND VPWR VPWR _0287_ sky130_fd_sc_hd__or3b_1
XFILLER_57_449 VGND VGND VPWR VPWR sky130_fd_sc_hd__decap_4
XTAP_TAPCELL_ROW_55_606 VGND VPWR sky130_fd_sc_hd__tapvpwrvgnd_1
X_1149_ net387 net121 _0797_ VGND VGND VPWR VPWR _0082_ sky130_fd_sc_hd__a21o_1
XFILLER_37_173 VPWR VGND VPWR VGND sky130_ef_sc_hd__decap_12
XFILLER_25_357 VGND VGND VPWR VPWR sky130_fd_sc_hd__decap_3
XFILLER_25_335 VGND VGND VPWR VPWR sky130_fd_sc_hd__fill_1
XFILLER_75_213 VGND VGND VPWR VPWR sky130_fd_sc_hd__decap_8
Xhold20 scratch\[1\]\[11\] VGND VGND VPWR VPWR net296 sky130_fd_sc_hd__dlygate4sd3_1
Xhold42 scratch\[5\]\[19\] VGND VGND VPWR VPWR net318 sky130_fd_sc_hd__dlygate4sd3_1
Xhold53 scratch\[5\]\[8\] VGND VGND VPWR VPWR net329 sky130_fd_sc_hd__dlygate4sd3_1
Xhold75 scratch\[5\]\[20\] VGND VGND VPWR VPWR net351 sky130_fd_sc_hd__dlygate4sd3_1
Xhold86 scratch\[5\]\[9\] VGND VGND VPWR VPWR net362 sky130_fd_sc_hd__dlygate4sd3_1
Xhold31 scratch\[1\]\[18\] VGND VGND VPWR VPWR net307 sky130_fd_sc_hd__dlygate4sd3_1
XFILLER_29_75 VPWR VGND VPWR VGND sky130_ef_sc_hd__decap_12